
---------- Begin Simulation Statistics ----------
sim_seconds                                  0.125633                       # Number of seconds simulated
sim_ticks                                125632837500                       # Number of ticks simulated
final_tick                               125632837500                       # Number of ticks from beginning of simulation (restored from checkpoints and never reset)
sim_freq                                 1000000000000                       # Frequency of simulated ticks
host_inst_rate                                 770217                       # Simulator instruction rate (inst/s)
host_op_rate                                   818823                       # Simulator op (including micro ops) rate (op/s)
host_tick_rate                             2215219079                       # Simulator tick rate (ticks/s)
host_mem_usage                                 639536                       # Number of bytes of host memory used
host_seconds                                    56.71                       # Real time elapsed on the host
sim_insts                                    43681711                       # Number of instructions simulated
sim_ops                                      46438296                       # Number of ops (including micro ops) simulated
system.voltage_domain.voltage                       1                       # Voltage in Volts
system.clk_domain.clock                          1000                       # Clock period in ticks
system.mem_ctrls.pwrStateResidencyTicks::UNDEFINED 125632837500                       # Cumulative time (in ticks) in various power states
system.mem_ctrls.bytes_read::cpu.inst          154112                       # Number of bytes read from this memory
system.mem_ctrls.bytes_read::cpu.data         5728032                       # Number of bytes read from this memory
system.mem_ctrls.bytes_read::total            5882144                       # Number of bytes read from this memory
system.mem_ctrls.bytes_inst_read::cpu.inst       154112                       # Number of instructions bytes read from this memory
system.mem_ctrls.bytes_inst_read::total        154112                       # Number of instructions bytes read from this memory
system.mem_ctrls.bytes_written::writebacks       430560                       # Number of bytes written to this memory
system.mem_ctrls.bytes_written::total          430560                       # Number of bytes written to this memory
system.mem_ctrls.num_reads::cpu.inst             4816                       # Number of read requests responded to by this memory
system.mem_ctrls.num_reads::cpu.data           179001                       # Number of read requests responded to by this memory
system.mem_ctrls.num_reads::total              183817                       # Number of read requests responded to by this memory
system.mem_ctrls.num_writes::writebacks         13455                       # Number of write requests responded to by this memory
system.mem_ctrls.num_writes::total              13455                       # Number of write requests responded to by this memory
system.mem_ctrls.bw_read::cpu.inst            1226686                       # Total read bandwidth from this memory (bytes/s)
system.mem_ctrls.bw_read::cpu.data           45593430                       # Total read bandwidth from this memory (bytes/s)
system.mem_ctrls.bw_read::total              46820116                       # Total read bandwidth from this memory (bytes/s)
system.mem_ctrls.bw_inst_read::cpu.inst       1226686                       # Instruction read bandwidth from this memory (bytes/s)
system.mem_ctrls.bw_inst_read::total          1226686                       # Instruction read bandwidth from this memory (bytes/s)
system.mem_ctrls.bw_write::writebacks         3427129                       # Write bandwidth from this memory (bytes/s)
system.mem_ctrls.bw_write::total              3427129                       # Write bandwidth from this memory (bytes/s)
system.mem_ctrls.bw_total::writebacks         3427129                       # Total bandwidth to/from this memory (bytes/s)
system.mem_ctrls.bw_total::cpu.inst           1226686                       # Total bandwidth to/from this memory (bytes/s)
system.mem_ctrls.bw_total::cpu.data          45593430                       # Total bandwidth to/from this memory (bytes/s)
system.mem_ctrls.bw_total::total             50247245                       # Total bandwidth to/from this memory (bytes/s)
system.mem_ctrls.readReqs                      183817                       # Number of read requests accepted
system.mem_ctrls.writeReqs                      13455                       # Number of write requests accepted
system.mem_ctrls.readBursts                    183817                       # Number of DRAM read bursts, including those serviced by the write queue
system.mem_ctrls.writeBursts                    13455                       # Number of DRAM write bursts, including those merged in the write queue
system.mem_ctrls.bytesReadDRAM               11513024                       # Total number of bytes read from DRAM
system.mem_ctrls.bytesReadWrQ                  251264                       # Total number of bytes read from write queue
system.mem_ctrls.bytesWritten                  683968                       # Total number of bytes written to DRAM
system.mem_ctrls.bytesReadSys                 5882144                       # Total read bytes from the system interface side
system.mem_ctrls.bytesWrittenSys               430560                       # Total written bytes from the system interface side
system.mem_ctrls.servicedByWrQ                   3926                       # Number of DRAM read bursts serviced by the write queue
system.mem_ctrls.mergedWrBursts                  2748                       # Number of DRAM write bursts merged with an existing one
system.mem_ctrls.neitherReadNorWriteReqs            0                       # Number of requests that are neither read nor write
system.mem_ctrls.perBankRdBursts::0             32838                       # Per bank write bursts
system.mem_ctrls.perBankRdBursts::1             34077                       # Per bank write bursts
system.mem_ctrls.perBankRdBursts::2             12241                       # Per bank write bursts
system.mem_ctrls.perBankRdBursts::3               334                       # Per bank write bursts
system.mem_ctrls.perBankRdBursts::4               545                       # Per bank write bursts
system.mem_ctrls.perBankRdBursts::5              2215                       # Per bank write bursts
system.mem_ctrls.perBankRdBursts::6              4280                       # Per bank write bursts
system.mem_ctrls.perBankRdBursts::7             10777                       # Per bank write bursts
system.mem_ctrls.perBankRdBursts::8               760                       # Per bank write bursts
system.mem_ctrls.perBankRdBursts::9               622                       # Per bank write bursts
system.mem_ctrls.perBankRdBursts::10               24                       # Per bank write bursts
system.mem_ctrls.perBankRdBursts::11              480                       # Per bank write bursts
system.mem_ctrls.perBankRdBursts::12              490                       # Per bank write bursts
system.mem_ctrls.perBankRdBursts::13            15906                       # Per bank write bursts
system.mem_ctrls.perBankRdBursts::14            31372                       # Per bank write bursts
system.mem_ctrls.perBankRdBursts::15            32930                       # Per bank write bursts
system.mem_ctrls.perBankWrBursts::0               219                       # Per bank write bursts
system.mem_ctrls.perBankWrBursts::1               204                       # Per bank write bursts
system.mem_ctrls.perBankWrBursts::2               351                       # Per bank write bursts
system.mem_ctrls.perBankWrBursts::3                12                       # Per bank write bursts
system.mem_ctrls.perBankWrBursts::4                12                       # Per bank write bursts
system.mem_ctrls.perBankWrBursts::5               150                       # Per bank write bursts
system.mem_ctrls.perBankWrBursts::6              2185                       # Per bank write bursts
system.mem_ctrls.perBankWrBursts::7              6846                       # Per bank write bursts
system.mem_ctrls.perBankWrBursts::8                 0                       # Per bank write bursts
system.mem_ctrls.perBankWrBursts::9                 0                       # Per bank write bursts
system.mem_ctrls.perBankWrBursts::10                0                       # Per bank write bursts
system.mem_ctrls.perBankWrBursts::11                0                       # Per bank write bursts
system.mem_ctrls.perBankWrBursts::12               97                       # Per bank write bursts
system.mem_ctrls.perBankWrBursts::13              201                       # Per bank write bursts
system.mem_ctrls.perBankWrBursts::14              203                       # Per bank write bursts
system.mem_ctrls.perBankWrBursts::15              207                       # Per bank write bursts
system.mem_ctrls.numRdRetry                         0                       # Number of times read queue was full causing retry
system.mem_ctrls.numWrRetry                         0                       # Number of times write queue was full causing retry
system.mem_ctrls.totGap                  125632759500                       # Total gap between requests
system.mem_ctrls.readPktSize::0                     0                       # Read request sizes (log2)
system.mem_ctrls.readPktSize::1                     0                       # Read request sizes (log2)
system.mem_ctrls.readPktSize::2                     0                       # Read request sizes (log2)
system.mem_ctrls.readPktSize::3                     0                       # Read request sizes (log2)
system.mem_ctrls.readPktSize::4                     0                       # Read request sizes (log2)
system.mem_ctrls.readPktSize::5                183817                       # Read request sizes (log2)
system.mem_ctrls.readPktSize::6                     0                       # Read request sizes (log2)
system.mem_ctrls.writePktSize::0                    0                       # Write request sizes (log2)
system.mem_ctrls.writePktSize::1                    0                       # Write request sizes (log2)
system.mem_ctrls.writePktSize::2                    0                       # Write request sizes (log2)
system.mem_ctrls.writePktSize::3                    0                       # Write request sizes (log2)
system.mem_ctrls.writePktSize::4                    0                       # Write request sizes (log2)
system.mem_ctrls.writePktSize::5                13455                       # Write request sizes (log2)
system.mem_ctrls.writePktSize::6                    0                       # Write request sizes (log2)
system.mem_ctrls.rdQLenPdf::0                  179885                       # What read queue length does an incoming req see
system.mem_ctrls.rdQLenPdf::1                       6                       # What read queue length does an incoming req see
system.mem_ctrls.rdQLenPdf::2                       0                       # What read queue length does an incoming req see
system.mem_ctrls.rdQLenPdf::3                       0                       # What read queue length does an incoming req see
system.mem_ctrls.rdQLenPdf::4                       0                       # What read queue length does an incoming req see
system.mem_ctrls.rdQLenPdf::5                       0                       # What read queue length does an incoming req see
system.mem_ctrls.rdQLenPdf::6                       0                       # What read queue length does an incoming req see
system.mem_ctrls.rdQLenPdf::7                       0                       # What read queue length does an incoming req see
system.mem_ctrls.rdQLenPdf::8                       0                       # What read queue length does an incoming req see
system.mem_ctrls.rdQLenPdf::9                       0                       # What read queue length does an incoming req see
system.mem_ctrls.rdQLenPdf::10                      0                       # What read queue length does an incoming req see
system.mem_ctrls.rdQLenPdf::11                      0                       # What read queue length does an incoming req see
system.mem_ctrls.rdQLenPdf::12                      0                       # What read queue length does an incoming req see
system.mem_ctrls.rdQLenPdf::13                      0                       # What read queue length does an incoming req see
system.mem_ctrls.rdQLenPdf::14                      0                       # What read queue length does an incoming req see
system.mem_ctrls.rdQLenPdf::15                      0                       # What read queue length does an incoming req see
system.mem_ctrls.rdQLenPdf::16                      0                       # What read queue length does an incoming req see
system.mem_ctrls.rdQLenPdf::17                      0                       # What read queue length does an incoming req see
system.mem_ctrls.rdQLenPdf::18                      0                       # What read queue length does an incoming req see
system.mem_ctrls.rdQLenPdf::19                      0                       # What read queue length does an incoming req see
system.mem_ctrls.rdQLenPdf::20                      0                       # What read queue length does an incoming req see
system.mem_ctrls.rdQLenPdf::21                      0                       # What read queue length does an incoming req see
system.mem_ctrls.rdQLenPdf::22                      0                       # What read queue length does an incoming req see
system.mem_ctrls.rdQLenPdf::23                      0                       # What read queue length does an incoming req see
system.mem_ctrls.rdQLenPdf::24                      0                       # What read queue length does an incoming req see
system.mem_ctrls.rdQLenPdf::25                      0                       # What read queue length does an incoming req see
system.mem_ctrls.rdQLenPdf::26                      0                       # What read queue length does an incoming req see
system.mem_ctrls.rdQLenPdf::27                      0                       # What read queue length does an incoming req see
system.mem_ctrls.rdQLenPdf::28                      0                       # What read queue length does an incoming req see
system.mem_ctrls.rdQLenPdf::29                      0                       # What read queue length does an incoming req see
system.mem_ctrls.rdQLenPdf::30                      0                       # What read queue length does an incoming req see
system.mem_ctrls.rdQLenPdf::31                      0                       # What read queue length does an incoming req see
system.mem_ctrls.wrQLenPdf::0                       1                       # What write queue length does an incoming req see
system.mem_ctrls.wrQLenPdf::1                       1                       # What write queue length does an incoming req see
system.mem_ctrls.wrQLenPdf::2                       1                       # What write queue length does an incoming req see
system.mem_ctrls.wrQLenPdf::3                       1                       # What write queue length does an incoming req see
system.mem_ctrls.wrQLenPdf::4                       1                       # What write queue length does an incoming req see
system.mem_ctrls.wrQLenPdf::5                       1                       # What write queue length does an incoming req see
system.mem_ctrls.wrQLenPdf::6                       1                       # What write queue length does an incoming req see
system.mem_ctrls.wrQLenPdf::7                       1                       # What write queue length does an incoming req see
system.mem_ctrls.wrQLenPdf::8                       1                       # What write queue length does an incoming req see
system.mem_ctrls.wrQLenPdf::9                       1                       # What write queue length does an incoming req see
system.mem_ctrls.wrQLenPdf::10                      1                       # What write queue length does an incoming req see
system.mem_ctrls.wrQLenPdf::11                      1                       # What write queue length does an incoming req see
system.mem_ctrls.wrQLenPdf::12                      1                       # What write queue length does an incoming req see
system.mem_ctrls.wrQLenPdf::13                      1                       # What write queue length does an incoming req see
system.mem_ctrls.wrQLenPdf::14                      1                       # What write queue length does an incoming req see
system.mem_ctrls.wrQLenPdf::15                    468                       # What write queue length does an incoming req see
system.mem_ctrls.wrQLenPdf::16                    469                       # What write queue length does an incoming req see
system.mem_ctrls.wrQLenPdf::17                    608                       # What write queue length does an incoming req see
system.mem_ctrls.wrQLenPdf::18                    611                       # What write queue length does an incoming req see
system.mem_ctrls.wrQLenPdf::19                    614                       # What write queue length does an incoming req see
system.mem_ctrls.wrQLenPdf::20                    611                       # What write queue length does an incoming req see
system.mem_ctrls.wrQLenPdf::21                    609                       # What write queue length does an incoming req see
system.mem_ctrls.wrQLenPdf::22                    609                       # What write queue length does an incoming req see
system.mem_ctrls.wrQLenPdf::23                    609                       # What write queue length does an incoming req see
system.mem_ctrls.wrQLenPdf::24                    609                       # What write queue length does an incoming req see
system.mem_ctrls.wrQLenPdf::25                    609                       # What write queue length does an incoming req see
system.mem_ctrls.wrQLenPdf::26                    610                       # What write queue length does an incoming req see
system.mem_ctrls.wrQLenPdf::27                    609                       # What write queue length does an incoming req see
system.mem_ctrls.wrQLenPdf::28                    609                       # What write queue length does an incoming req see
system.mem_ctrls.wrQLenPdf::29                    610                       # What write queue length does an incoming req see
system.mem_ctrls.wrQLenPdf::30                    609                       # What write queue length does an incoming req see
system.mem_ctrls.wrQLenPdf::31                    609                       # What write queue length does an incoming req see
system.mem_ctrls.wrQLenPdf::32                    610                       # What write queue length does an incoming req see
system.mem_ctrls.wrQLenPdf::33                      0                       # What write queue length does an incoming req see
system.mem_ctrls.wrQLenPdf::34                      0                       # What write queue length does an incoming req see
system.mem_ctrls.wrQLenPdf::35                      0                       # What write queue length does an incoming req see
system.mem_ctrls.wrQLenPdf::36                      0                       # What write queue length does an incoming req see
system.mem_ctrls.wrQLenPdf::37                      0                       # What write queue length does an incoming req see
system.mem_ctrls.wrQLenPdf::38                      0                       # What write queue length does an incoming req see
system.mem_ctrls.wrQLenPdf::39                      0                       # What write queue length does an incoming req see
system.mem_ctrls.wrQLenPdf::40                      0                       # What write queue length does an incoming req see
system.mem_ctrls.wrQLenPdf::41                      0                       # What write queue length does an incoming req see
system.mem_ctrls.wrQLenPdf::42                      0                       # What write queue length does an incoming req see
system.mem_ctrls.wrQLenPdf::43                      0                       # What write queue length does an incoming req see
system.mem_ctrls.wrQLenPdf::44                      0                       # What write queue length does an incoming req see
system.mem_ctrls.wrQLenPdf::45                      0                       # What write queue length does an incoming req see
system.mem_ctrls.wrQLenPdf::46                      0                       # What write queue length does an incoming req see
system.mem_ctrls.wrQLenPdf::47                      0                       # What write queue length does an incoming req see
system.mem_ctrls.wrQLenPdf::48                      0                       # What write queue length does an incoming req see
system.mem_ctrls.wrQLenPdf::49                      0                       # What write queue length does an incoming req see
system.mem_ctrls.wrQLenPdf::50                      0                       # What write queue length does an incoming req see
system.mem_ctrls.wrQLenPdf::51                      0                       # What write queue length does an incoming req see
system.mem_ctrls.wrQLenPdf::52                      0                       # What write queue length does an incoming req see
system.mem_ctrls.wrQLenPdf::53                      0                       # What write queue length does an incoming req see
system.mem_ctrls.wrQLenPdf::54                      0                       # What write queue length does an incoming req see
system.mem_ctrls.wrQLenPdf::55                      0                       # What write queue length does an incoming req see
system.mem_ctrls.wrQLenPdf::56                      0                       # What write queue length does an incoming req see
system.mem_ctrls.wrQLenPdf::57                      0                       # What write queue length does an incoming req see
system.mem_ctrls.wrQLenPdf::58                      0                       # What write queue length does an incoming req see
system.mem_ctrls.wrQLenPdf::59                      0                       # What write queue length does an incoming req see
system.mem_ctrls.wrQLenPdf::60                      0                       # What write queue length does an incoming req see
system.mem_ctrls.wrQLenPdf::61                      0                       # What write queue length does an incoming req see
system.mem_ctrls.wrQLenPdf::62                      0                       # What write queue length does an incoming req see
system.mem_ctrls.wrQLenPdf::63                      0                       # What write queue length does an incoming req see
system.mem_ctrls.bytesPerActivate::samples        29452                       # Bytes accessed per row activation
system.mem_ctrls.bytesPerActivate::mean    414.096428                       # Bytes accessed per row activation
system.mem_ctrls.bytesPerActivate::gmean   254.228097                       # Bytes accessed per row activation
system.mem_ctrls.bytesPerActivate::stdev   349.590316                       # Bytes accessed per row activation
system.mem_ctrls.bytesPerActivate::0-127         8485     28.81%     28.81% # Bytes accessed per row activation
system.mem_ctrls.bytesPerActivate::128-255         4928     16.73%     45.54% # Bytes accessed per row activation
system.mem_ctrls.bytesPerActivate::256-383         2456      8.34%     53.88% # Bytes accessed per row activation
system.mem_ctrls.bytesPerActivate::384-511         1866      6.34%     60.22% # Bytes accessed per row activation
system.mem_ctrls.bytesPerActivate::512-639         2404      8.16%     68.38% # Bytes accessed per row activation
system.mem_ctrls.bytesPerActivate::640-767         1849      6.28%     74.66% # Bytes accessed per row activation
system.mem_ctrls.bytesPerActivate::768-895         2854      9.69%     84.35% # Bytes accessed per row activation
system.mem_ctrls.bytesPerActivate::896-1023         1261      4.28%     88.63% # Bytes accessed per row activation
system.mem_ctrls.bytesPerActivate::1024-1151         3349     11.37%    100.00% # Bytes accessed per row activation
system.mem_ctrls.bytesPerActivate::total        29452                       # Bytes accessed per row activation
system.mem_ctrls.rdPerTurnAround::samples          609                       # Reads before turning the bus around for writes
system.mem_ctrls.rdPerTurnAround::mean     294.922824                       # Reads before turning the bus around for writes
system.mem_ctrls.rdPerTurnAround::gmean    155.292786                       # Reads before turning the bus around for writes
system.mem_ctrls.rdPerTurnAround::stdev    303.851308                       # Reads before turning the bus around for writes
system.mem_ctrls.rdPerTurnAround::0-127           250     41.05%     41.05% # Reads before turning the bus around for writes
system.mem_ctrls.rdPerTurnAround::128-255           81     13.30%     54.35% # Reads before turning the bus around for writes
system.mem_ctrls.rdPerTurnAround::256-383           96     15.76%     70.11% # Reads before turning the bus around for writes
system.mem_ctrls.rdPerTurnAround::384-511           66     10.84%     80.95% # Reads before turning the bus around for writes
system.mem_ctrls.rdPerTurnAround::512-639           37      6.08%     87.03% # Reads before turning the bus around for writes
system.mem_ctrls.rdPerTurnAround::640-767           34      5.58%     92.61% # Reads before turning the bus around for writes
system.mem_ctrls.rdPerTurnAround::768-895           16      2.63%     95.24% # Reads before turning the bus around for writes
system.mem_ctrls.rdPerTurnAround::896-1023            8      1.31%     96.55% # Reads before turning the bus around for writes
system.mem_ctrls.rdPerTurnAround::1024-1151           10      1.64%     98.19% # Reads before turning the bus around for writes
system.mem_ctrls.rdPerTurnAround::1152-1279            6      0.99%     99.18% # Reads before turning the bus around for writes
system.mem_ctrls.rdPerTurnAround::1408-1535            1      0.16%     99.34% # Reads before turning the bus around for writes
system.mem_ctrls.rdPerTurnAround::1536-1663            2      0.33%     99.67% # Reads before turning the bus around for writes
system.mem_ctrls.rdPerTurnAround::1664-1791            1      0.16%     99.84% # Reads before turning the bus around for writes
system.mem_ctrls.rdPerTurnAround::2176-2303            1      0.16%    100.00% # Reads before turning the bus around for writes
system.mem_ctrls.rdPerTurnAround::total           609                       # Reads before turning the bus around for writes
system.mem_ctrls.wrPerTurnAround::samples          609                       # Writes before turning the bus around for reads
system.mem_ctrls.wrPerTurnAround::mean      17.548440                       # Writes before turning the bus around for reads
system.mem_ctrls.wrPerTurnAround::gmean     17.526662                       # Writes before turning the bus around for reads
system.mem_ctrls.wrPerTurnAround::stdev      0.857265                       # Writes before turning the bus around for reads
system.mem_ctrls.wrPerTurnAround::16              141     23.15%     23.15% # Writes before turning the bus around for reads
system.mem_ctrls.wrPerTurnAround::18              461     75.70%     98.85% # Writes before turning the bus around for reads
system.mem_ctrls.wrPerTurnAround::19                7      1.15%    100.00% # Writes before turning the bus around for reads
system.mem_ctrls.wrPerTurnAround::total           609                       # Writes before turning the bus around for reads
system.mem_ctrls.totQLat                   4587828500                       # Total ticks spent queuing
system.mem_ctrls.totMemAccLat              7960784750                       # Total ticks spent from burst creation until serviced by the DRAM
system.mem_ctrls.totBusLat                  899455000                       # Total ticks spent in databus transfers
system.mem_ctrls.avgQLat                     25503.38                       # Average queueing delay per DRAM burst
system.mem_ctrls.avgBusLat                    5000.00                       # Average bus latency per DRAM burst
system.mem_ctrls.avgMemAccLat                44253.38                       # Average memory access latency per DRAM burst
system.mem_ctrls.avgRdBW                        91.64                       # Average DRAM read bandwidth in MiByte/s
system.mem_ctrls.avgWrBW                         5.44                       # Average achieved write bandwidth in MiByte/s
system.mem_ctrls.avgRdBWSys                     46.82                       # Average system read bandwidth in MiByte/s
system.mem_ctrls.avgWrBWSys                      3.43                       # Average system write bandwidth in MiByte/s
system.mem_ctrls.peakBW                      12800.00                       # Theoretical peak bandwidth in MiByte/s
system.mem_ctrls.busUtil                         0.76                       # Data bus utilization in percentage
system.mem_ctrls.busUtilRead                     0.72                       # Data bus utilization in percentage for reads
system.mem_ctrls.busUtilWrite                    0.04                       # Data bus utilization in percentage for writes
system.mem_ctrls.avgRdQLen                       1.00                       # Average read queue length when enqueuing
system.mem_ctrls.avgWrQLen                      24.72                       # Average write queue length when enqueuing
system.mem_ctrls.readRowHits                   151461                       # Number of row buffer hits during reads
system.mem_ctrls.writeRowHits                    9660                       # Number of row buffer hits during writes
system.mem_ctrls.readRowHitRate                 84.20                       # Row buffer hit rate for reads
system.mem_ctrls.writeRowHitRate                90.22                       # Row buffer hit rate for writes
system.mem_ctrls.avgGap                     636850.44                       # Average gap between requests
system.mem_ctrls.pageHitRate                    84.53                       # Row buffer hit rate, read and write combined
system.mem_ctrls_0.actEnergy                127620360                       # Energy for activate commands per rank (pJ)
system.mem_ctrls_0.preEnergy                 67820445                       # Energy for precharge commands per rank (pJ)
system.mem_ctrls_0.readEnergy               694771980                       # Energy for read commands per rank (pJ)
system.mem_ctrls_0.writeEnergy               52090380                       # Energy for write commands per rank (pJ)
system.mem_ctrls_0.refreshEnergy         9242956320.000002                       # Energy for refresh commands per rank (pJ)
system.mem_ctrls_0.actBackEnergy           3372332040                       # Energy for active background per rank (pJ)
system.mem_ctrls_0.preBackEnergy            404849280                       # Energy for precharge background per rank (pJ)
system.mem_ctrls_0.actPowerDownEnergy     27616588920                       # Energy for active power-down per rank (pJ)
system.mem_ctrls_0.prePowerDownEnergy     11920257600                       # Energy for precharge power-down per rank (pJ)
system.mem_ctrls_0.selfRefreshEnergy       7435942560                       # Energy for self refresh per rank (pJ)
system.mem_ctrls_0.totalEnergy            60938753175                       # Total energy per rank (pJ)
system.mem_ctrls_0.averagePower            485.054341                       # Core power per rank (mW)
system.mem_ctrls_0.totalIdleTime         117174458250                       # Total Idle time Per DRAM Rank
system.mem_ctrls_0.memoryStateTime::IDLE    686141500                       # Time in different power states
system.mem_ctrls_0.memoryStateTime::REF    3924466000                       # Time in different power states
system.mem_ctrls_0.memoryStateTime::SREF  25570195000                       # Time in different power states
system.mem_ctrls_0.memoryStateTime::PRE_PDN  31042358750                       # Time in different power states
system.mem_ctrls_0.memoryStateTime::ACT    3847005000                       # Time in different power states
system.mem_ctrls_0.memoryStateTime::ACT_PDN  60562671250                       # Time in different power states
system.mem_ctrls_1.actEnergy                 82702620                       # Energy for activate commands per rank (pJ)
system.mem_ctrls_1.preEnergy                 43949895                       # Energy for precharge commands per rank (pJ)
system.mem_ctrls_1.readEnergy               589649760                       # Energy for read commands per rank (pJ)
system.mem_ctrls_1.writeEnergy                3695760                       # Energy for write commands per rank (pJ)
system.mem_ctrls_1.refreshEnergy         7917177840.000001                       # Energy for refresh commands per rank (pJ)
system.mem_ctrls_1.actBackEnergy           2589494610                       # Energy for active background per rank (pJ)
system.mem_ctrls_1.preBackEnergy            370882080                       # Energy for precharge background per rank (pJ)
system.mem_ctrls_1.actPowerDownEnergy     22697042040                       # Energy for active power-down per rank (pJ)
system.mem_ctrls_1.prePowerDownEnergy     10525557120                       # Energy for precharge power-down per rank (pJ)
system.mem_ctrls_1.selfRefreshEnergy      11286487800                       # Energy for self refresh per rank (pJ)
system.mem_ctrls_1.totalEnergy            56111051205                       # Total energy per rank (pJ)
system.mem_ctrls_1.averagePower            446.627270                       # Core power per rank (mW)
system.mem_ctrls_1.totalIdleTime         118978560000                       # Total Idle time Per DRAM Rank
system.mem_ctrls_1.memoryStateTime::IDLE    655257000                       # Time in different power states
system.mem_ctrls_1.memoryStateTime::REF    3363196000                       # Time in different power states
system.mem_ctrls_1.memoryStateTime::SREF  41793938500                       # Time in different power states
system.mem_ctrls_1.memoryStateTime::PRE_PDN  27410228000                       # Time in different power states
system.mem_ctrls_1.memoryStateTime::ACT    2635782750                       # Time in different power states
system.mem_ctrls_1.memoryStateTime::ACT_PDN  49774435250                       # Time in different power states
system.pwrStateResidencyTicks::UNDEFINED 125632837500                       # Cumulative time (in ticks) in various power states
system.cpu_voltage_domain.voltage                   1                       # Voltage in Volts
system.cpu_clk_domain.clock                       500                       # Clock period in ticks
system.cpu.dstage2_mmu.stage2_tlb.walker.pwrStateResidencyTicks::UNDEFINED 125632837500                       # Cumulative time (in ticks) in various power states
system.cpu.dstage2_mmu.stage2_tlb.walker.walks            0                       # Table walker walks requested
system.cpu.dstage2_mmu.stage2_tlb.walker.walkRequestOrigin_Requested::Data            0                       # Table walker requests started/completed, data/inst
system.cpu.dstage2_mmu.stage2_tlb.walker.walkRequestOrigin_Requested::Inst            0                       # Table walker requests started/completed, data/inst
system.cpu.dstage2_mmu.stage2_tlb.walker.walkRequestOrigin_Requested::total            0                       # Table walker requests started/completed, data/inst
system.cpu.dstage2_mmu.stage2_tlb.walker.walkRequestOrigin_Completed::Data            0                       # Table walker requests started/completed, data/inst
system.cpu.dstage2_mmu.stage2_tlb.walker.walkRequestOrigin_Completed::Inst            0                       # Table walker requests started/completed, data/inst
system.cpu.dstage2_mmu.stage2_tlb.walker.walkRequestOrigin_Completed::total            0                       # Table walker requests started/completed, data/inst
system.cpu.dstage2_mmu.stage2_tlb.walker.walkRequestOrigin::total            0                       # Table walker requests started/completed, data/inst
system.cpu.dstage2_mmu.stage2_tlb.inst_hits            0                       # ITB inst hits
system.cpu.dstage2_mmu.stage2_tlb.inst_misses            0                       # ITB inst misses
system.cpu.dstage2_mmu.stage2_tlb.read_hits            0                       # DTB read hits
system.cpu.dstage2_mmu.stage2_tlb.read_misses            0                       # DTB read misses
system.cpu.dstage2_mmu.stage2_tlb.write_hits            0                       # DTB write hits
system.cpu.dstage2_mmu.stage2_tlb.write_misses            0                       # DTB write misses
system.cpu.dstage2_mmu.stage2_tlb.flush_tlb            0                       # Number of times complete TLB was flushed
system.cpu.dstage2_mmu.stage2_tlb.flush_tlb_mva            0                       # Number of times TLB was flushed by MVA
system.cpu.dstage2_mmu.stage2_tlb.flush_tlb_mva_asid            0                       # Number of times TLB was flushed by MVA & ASID
system.cpu.dstage2_mmu.stage2_tlb.flush_tlb_asid            0                       # Number of times TLB was flushed by ASID
system.cpu.dstage2_mmu.stage2_tlb.flush_entries            0                       # Number of entries that have been flushed from TLB
system.cpu.dstage2_mmu.stage2_tlb.align_faults            0                       # Number of TLB faults due to alignment restrictions
system.cpu.dstage2_mmu.stage2_tlb.prefetch_faults            0                       # Number of TLB faults due to prefetch
system.cpu.dstage2_mmu.stage2_tlb.domain_faults            0                       # Number of TLB faults due to domain restrictions
system.cpu.dstage2_mmu.stage2_tlb.perms_faults            0                       # Number of TLB faults due to permissions restrictions
system.cpu.dstage2_mmu.stage2_tlb.read_accesses            0                       # DTB read accesses
system.cpu.dstage2_mmu.stage2_tlb.write_accesses            0                       # DTB write accesses
system.cpu.dstage2_mmu.stage2_tlb.inst_accesses            0                       # ITB inst accesses
system.cpu.dstage2_mmu.stage2_tlb.hits              0                       # DTB hits
system.cpu.dstage2_mmu.stage2_tlb.misses            0                       # DTB misses
system.cpu.dstage2_mmu.stage2_tlb.accesses            0                       # DTB accesses
system.cpu.dtb.walker.pwrStateResidencyTicks::UNDEFINED 125632837500                       # Cumulative time (in ticks) in various power states
system.cpu.dtb.walker.walks                         0                       # Table walker walks requested
system.cpu.dtb.walker.walkRequestOrigin_Requested::Data            0                       # Table walker requests started/completed, data/inst
system.cpu.dtb.walker.walkRequestOrigin_Requested::Inst            0                       # Table walker requests started/completed, data/inst
system.cpu.dtb.walker.walkRequestOrigin_Requested::total            0                       # Table walker requests started/completed, data/inst
system.cpu.dtb.walker.walkRequestOrigin_Completed::Data            0                       # Table walker requests started/completed, data/inst
system.cpu.dtb.walker.walkRequestOrigin_Completed::Inst            0                       # Table walker requests started/completed, data/inst
system.cpu.dtb.walker.walkRequestOrigin_Completed::total            0                       # Table walker requests started/completed, data/inst
system.cpu.dtb.walker.walkRequestOrigin::total            0                       # Table walker requests started/completed, data/inst
system.cpu.dtb.inst_hits                            0                       # ITB inst hits
system.cpu.dtb.inst_misses                          0                       # ITB inst misses
system.cpu.dtb.read_hits                            0                       # DTB read hits
system.cpu.dtb.read_misses                          0                       # DTB read misses
system.cpu.dtb.write_hits                           0                       # DTB write hits
system.cpu.dtb.write_misses                         0                       # DTB write misses
system.cpu.dtb.flush_tlb                            0                       # Number of times complete TLB was flushed
system.cpu.dtb.flush_tlb_mva                        0                       # Number of times TLB was flushed by MVA
system.cpu.dtb.flush_tlb_mva_asid                   0                       # Number of times TLB was flushed by MVA & ASID
system.cpu.dtb.flush_tlb_asid                       0                       # Number of times TLB was flushed by ASID
system.cpu.dtb.flush_entries                        0                       # Number of entries that have been flushed from TLB
system.cpu.dtb.align_faults                         0                       # Number of TLB faults due to alignment restrictions
system.cpu.dtb.prefetch_faults                      0                       # Number of TLB faults due to prefetch
system.cpu.dtb.domain_faults                        0                       # Number of TLB faults due to domain restrictions
system.cpu.dtb.perms_faults                         0                       # Number of TLB faults due to permissions restrictions
system.cpu.dtb.read_accesses                        0                       # DTB read accesses
system.cpu.dtb.write_accesses                       0                       # DTB write accesses
system.cpu.dtb.inst_accesses                        0                       # ITB inst accesses
system.cpu.dtb.hits                                 0                       # DTB hits
system.cpu.dtb.misses                               0                       # DTB misses
system.cpu.dtb.accesses                             0                       # DTB accesses
system.cpu.istage2_mmu.stage2_tlb.walker.pwrStateResidencyTicks::UNDEFINED 125632837500                       # Cumulative time (in ticks) in various power states
system.cpu.istage2_mmu.stage2_tlb.walker.walks            0                       # Table walker walks requested
system.cpu.istage2_mmu.stage2_tlb.walker.walkRequestOrigin_Requested::Data            0                       # Table walker requests started/completed, data/inst
system.cpu.istage2_mmu.stage2_tlb.walker.walkRequestOrigin_Requested::Inst            0                       # Table walker requests started/completed, data/inst
system.cpu.istage2_mmu.stage2_tlb.walker.walkRequestOrigin_Requested::total            0                       # Table walker requests started/completed, data/inst
system.cpu.istage2_mmu.stage2_tlb.walker.walkRequestOrigin_Completed::Data            0                       # Table walker requests started/completed, data/inst
system.cpu.istage2_mmu.stage2_tlb.walker.walkRequestOrigin_Completed::Inst            0                       # Table walker requests started/completed, data/inst
system.cpu.istage2_mmu.stage2_tlb.walker.walkRequestOrigin_Completed::total            0                       # Table walker requests started/completed, data/inst
system.cpu.istage2_mmu.stage2_tlb.walker.walkRequestOrigin::total            0                       # Table walker requests started/completed, data/inst
system.cpu.istage2_mmu.stage2_tlb.inst_hits            0                       # ITB inst hits
system.cpu.istage2_mmu.stage2_tlb.inst_misses            0                       # ITB inst misses
system.cpu.istage2_mmu.stage2_tlb.read_hits            0                       # DTB read hits
system.cpu.istage2_mmu.stage2_tlb.read_misses            0                       # DTB read misses
system.cpu.istage2_mmu.stage2_tlb.write_hits            0                       # DTB write hits
system.cpu.istage2_mmu.stage2_tlb.write_misses            0                       # DTB write misses
system.cpu.istage2_mmu.stage2_tlb.flush_tlb            0                       # Number of times complete TLB was flushed
system.cpu.istage2_mmu.stage2_tlb.flush_tlb_mva            0                       # Number of times TLB was flushed by MVA
system.cpu.istage2_mmu.stage2_tlb.flush_tlb_mva_asid            0                       # Number of times TLB was flushed by MVA & ASID
system.cpu.istage2_mmu.stage2_tlb.flush_tlb_asid            0                       # Number of times TLB was flushed by ASID
system.cpu.istage2_mmu.stage2_tlb.flush_entries            0                       # Number of entries that have been flushed from TLB
system.cpu.istage2_mmu.stage2_tlb.align_faults            0                       # Number of TLB faults due to alignment restrictions
system.cpu.istage2_mmu.stage2_tlb.prefetch_faults            0                       # Number of TLB faults due to prefetch
system.cpu.istage2_mmu.stage2_tlb.domain_faults            0                       # Number of TLB faults due to domain restrictions
system.cpu.istage2_mmu.stage2_tlb.perms_faults            0                       # Number of TLB faults due to permissions restrictions
system.cpu.istage2_mmu.stage2_tlb.read_accesses            0                       # DTB read accesses
system.cpu.istage2_mmu.stage2_tlb.write_accesses            0                       # DTB write accesses
system.cpu.istage2_mmu.stage2_tlb.inst_accesses            0                       # ITB inst accesses
system.cpu.istage2_mmu.stage2_tlb.hits              0                       # DTB hits
system.cpu.istage2_mmu.stage2_tlb.misses            0                       # DTB misses
system.cpu.istage2_mmu.stage2_tlb.accesses            0                       # DTB accesses
system.cpu.itb.walker.pwrStateResidencyTicks::UNDEFINED 125632837500                       # Cumulative time (in ticks) in various power states
system.cpu.itb.walker.walks                         0                       # Table walker walks requested
system.cpu.itb.walker.walkRequestOrigin_Requested::Data            0                       # Table walker requests started/completed, data/inst
system.cpu.itb.walker.walkRequestOrigin_Requested::Inst            0                       # Table walker requests started/completed, data/inst
system.cpu.itb.walker.walkRequestOrigin_Requested::total            0                       # Table walker requests started/completed, data/inst
system.cpu.itb.walker.walkRequestOrigin_Completed::Data            0                       # Table walker requests started/completed, data/inst
system.cpu.itb.walker.walkRequestOrigin_Completed::Inst            0                       # Table walker requests started/completed, data/inst
system.cpu.itb.walker.walkRequestOrigin_Completed::total            0                       # Table walker requests started/completed, data/inst
system.cpu.itb.walker.walkRequestOrigin::total            0                       # Table walker requests started/completed, data/inst
system.cpu.itb.inst_hits                            0                       # ITB inst hits
system.cpu.itb.inst_misses                          0                       # ITB inst misses
system.cpu.itb.read_hits                            0                       # DTB read hits
system.cpu.itb.read_misses                          0                       # DTB read misses
system.cpu.itb.write_hits                           0                       # DTB write hits
system.cpu.itb.write_misses                         0                       # DTB write misses
system.cpu.itb.flush_tlb                            0                       # Number of times complete TLB was flushed
system.cpu.itb.flush_tlb_mva                        0                       # Number of times TLB was flushed by MVA
system.cpu.itb.flush_tlb_mva_asid                   0                       # Number of times TLB was flushed by MVA & ASID
system.cpu.itb.flush_tlb_asid                       0                       # Number of times TLB was flushed by ASID
system.cpu.itb.flush_entries                        0                       # Number of entries that have been flushed from TLB
system.cpu.itb.align_faults                         0                       # Number of TLB faults due to alignment restrictions
system.cpu.itb.prefetch_faults                      0                       # Number of TLB faults due to prefetch
system.cpu.itb.domain_faults                        0                       # Number of TLB faults due to domain restrictions
system.cpu.itb.perms_faults                         0                       # Number of TLB faults due to permissions restrictions
system.cpu.itb.read_accesses                        0                       # DTB read accesses
system.cpu.itb.write_accesses                       0                       # DTB write accesses
system.cpu.itb.inst_accesses                        0                       # ITB inst accesses
system.cpu.itb.hits                                 0                       # DTB hits
system.cpu.itb.misses                               0                       # DTB misses
system.cpu.itb.accesses                             0                       # DTB accesses
system.cpu.workload.numSyscalls                   239                       # Number of system calls
system.cpu.pwrStateResidencyTicks::ON    125632837500                       # Cumulative time (in ticks) in various power states
system.cpu.numCycles                        251265675                       # number of cpu cycles simulated
system.cpu.numWorkItemsStarted                      0                       # number of work items this cpu started
system.cpu.numWorkItemsCompleted                    0                       # number of work items this cpu completed
system.cpu.committedInsts                    43681711                       # Number of instructions committed
system.cpu.committedOps                      46438296                       # Number of ops (including micro ops) committed
system.cpu.num_int_alu_accesses              36550913                       # Number of integer alu accesses
system.cpu.num_fp_alu_accesses                     16                       # Number of float alu accesses
system.cpu.num_vec_alu_accesses                     0                       # Number of vector alu accesses
system.cpu.num_func_calls                      479840                       # number of times a function call or return occured
system.cpu.num_conditional_control_insts      9756863                       # number of instructions that are conditional controls
system.cpu.num_int_insts                     36550913                       # number of integer instructions
system.cpu.num_fp_insts                            16                       # number of float instructions
system.cpu.num_vec_insts                            0                       # number of vector instructions
system.cpu.num_int_register_reads            62405342                       # number of times the integer registers were read
system.cpu.num_int_register_writes           21331323                       # number of times the integer registers were written
system.cpu.num_fp_register_reads                   16                       # number of times the floating registers were read
system.cpu.num_fp_register_writes                   0                       # number of times the floating registers were written
system.cpu.num_vec_register_reads                   0                       # number of times the vector registers were read
system.cpu.num_vec_register_writes                  0                       # number of times the vector registers were written
system.cpu.num_cc_register_reads            167328399                       # number of times the CC registers were read
system.cpu.num_cc_register_writes            30215580                       # number of times the CC registers were written
system.cpu.num_mem_refs                      14199997                       # number of memory refs
system.cpu.num_load_insts                     9180679                       # Number of load instructions
system.cpu.num_store_insts                    5019318                       # Number of store instructions
system.cpu.num_idle_cycles                          0                       # Number of idle cycles
system.cpu.num_busy_cycles                  251265675                       # Number of busy cycles
system.cpu.not_idle_fraction                        1                       # Percentage of non-idle cycles
system.cpu.idle_fraction                            0                       # Percentage of idle cycles
system.cpu.Branches                          10612420                       # Number of branches fetched
system.cpu.op_class::No_OpClass                     0      0.00%      0.00% # Class of executed instruction
system.cpu.op_class::IntAlu                  32367985     69.48%     69.48% # Class of executed instruction
system.cpu.op_class::IntMult                    19468      0.04%     69.52% # Class of executed instruction
system.cpu.op_class::IntDiv                         0      0.00%     69.52% # Class of executed instruction
system.cpu.op_class::FloatAdd                       0      0.00%     69.52% # Class of executed instruction
system.cpu.op_class::FloatCmp                       0      0.00%     69.52% # Class of executed instruction
system.cpu.op_class::FloatCvt                       0      0.00%     69.52% # Class of executed instruction
system.cpu.op_class::FloatMult                      0      0.00%     69.52% # Class of executed instruction
system.cpu.op_class::FloatMultAcc                   0      0.00%     69.52% # Class of executed instruction
system.cpu.op_class::FloatDiv                       0      0.00%     69.52% # Class of executed instruction
system.cpu.op_class::FloatMisc                      0      0.00%     69.52% # Class of executed instruction
system.cpu.op_class::FloatSqrt                      0      0.00%     69.52% # Class of executed instruction
system.cpu.op_class::SimdAdd                        0      0.00%     69.52% # Class of executed instruction
system.cpu.op_class::SimdAddAcc                     0      0.00%     69.52% # Class of executed instruction
system.cpu.op_class::SimdAlu                        0      0.00%     69.52% # Class of executed instruction
system.cpu.op_class::SimdCmp                        0      0.00%     69.52% # Class of executed instruction
system.cpu.op_class::SimdCvt                        0      0.00%     69.52% # Class of executed instruction
system.cpu.op_class::SimdMisc                       0      0.00%     69.52% # Class of executed instruction
system.cpu.op_class::SimdMult                       0      0.00%     69.52% # Class of executed instruction
system.cpu.op_class::SimdMultAcc                    0      0.00%     69.52% # Class of executed instruction
system.cpu.op_class::SimdShift                      0      0.00%     69.52% # Class of executed instruction
system.cpu.op_class::SimdShiftAcc                   0      0.00%     69.52% # Class of executed instruction
system.cpu.op_class::SimdSqrt                       0      0.00%     69.52% # Class of executed instruction
system.cpu.op_class::SimdFloatAdd                   0      0.00%     69.52% # Class of executed instruction
system.cpu.op_class::SimdFloatAlu                   0      0.00%     69.52% # Class of executed instruction
system.cpu.op_class::SimdFloatCmp                   0      0.00%     69.52% # Class of executed instruction
system.cpu.op_class::SimdFloatCvt                   0      0.00%     69.52% # Class of executed instruction
system.cpu.op_class::SimdFloatDiv                   0      0.00%     69.52% # Class of executed instruction
system.cpu.op_class::SimdFloatMisc                  0      0.00%     69.52% # Class of executed instruction
system.cpu.op_class::SimdFloatMult                  0      0.00%     69.52% # Class of executed instruction
system.cpu.op_class::SimdFloatMultAcc               0      0.00%     69.52% # Class of executed instruction
system.cpu.op_class::SimdFloatSqrt                  0      0.00%     69.52% # Class of executed instruction
system.cpu.op_class::MemRead                  9180679     19.71%     89.23% # Class of executed instruction
system.cpu.op_class::MemWrite                 5019302     10.77%    100.00% # Class of executed instruction
system.cpu.op_class::FloatMemRead                   0      0.00%    100.00% # Class of executed instruction
system.cpu.op_class::FloatMemWrite                 16      0.00%    100.00% # Class of executed instruction
system.cpu.op_class::IprAccess                      0      0.00%    100.00% # Class of executed instruction
system.cpu.op_class::InstPrefetch                   0      0.00%    100.00% # Class of executed instruction
system.cpu.op_class::total                   46587450                       # Class of executed instruction
system.cpu.dcache.tags.pwrStateResidencyTicks::UNDEFINED 125632837500                       # Cumulative time (in ticks) in various power states
system.cpu.dcache.tags.replacements           2960048                       # number of replacements
system.cpu.dcache.tags.tagsinuse            31.999204                       # Cycle average of tags in use
system.cpu.dcache.tags.total_refs            11141818                       # Total number of references to valid blocks.
system.cpu.dcache.tags.sampled_refs           2960080                       # Sample count of references to valid blocks.
system.cpu.dcache.tags.avg_refs              3.764026                       # Average number of references to valid blocks.
system.cpu.dcache.tags.warmup_cycle          11534500                       # Cycle when the warmup percentage was hit.
system.cpu.dcache.tags.occ_blocks::cpu.data    31.999204                       # Average occupied blocks per requestor
system.cpu.dcache.tags.occ_percent::cpu.data     0.999975                       # Average percentage of cache occupancy
system.cpu.dcache.tags.occ_percent::total     0.999975                       # Average percentage of cache occupancy
system.cpu.dcache.tags.occ_task_id_blocks::1024           32                       # Occupied blocks per task id
system.cpu.dcache.tags.age_task_id_blocks_1024::0           23                       # Occupied blocks per task id
system.cpu.dcache.tags.age_task_id_blocks_1024::1            9                       # Occupied blocks per task id
system.cpu.dcache.tags.occ_task_id_percent::1024            1                       # Percentage of cache occupancy per task id
system.cpu.dcache.tags.tag_accesses          59367672                       # Number of tag accesses
system.cpu.dcache.tags.data_accesses         59367672                       # Number of data accesses
system.cpu.dcache.pwrStateResidencyTicks::UNDEFINED 125632837500                       # Cumulative time (in ticks) in various power states
system.cpu.dcache.ReadReq_hits::cpu.data      6269758                       # number of ReadReq hits
system.cpu.dcache.ReadReq_hits::total         6269758                       # number of ReadReq hits
system.cpu.dcache.WriteReq_hits::cpu.data      4681600                       # number of WriteReq hits
system.cpu.dcache.WriteReq_hits::total        4681600                       # number of WriteReq hits
system.cpu.dcache.LoadLockedReq_hits::cpu.data        95230                       # number of LoadLockedReq hits
system.cpu.dcache.LoadLockedReq_hits::total        95230                       # number of LoadLockedReq hits
system.cpu.dcache.StoreCondReq_hits::cpu.data        95230                       # number of StoreCondReq hits
system.cpu.dcache.StoreCondReq_hits::total        95230                       # number of StoreCondReq hits
system.cpu.dcache.demand_hits::cpu.data      10951358                       # number of demand (read+write) hits
system.cpu.dcache.demand_hits::total         10951358                       # number of demand (read+write) hits
system.cpu.dcache.overall_hits::cpu.data     10951358                       # number of overall hits
system.cpu.dcache.overall_hits::total        10951358                       # number of overall hits
system.cpu.dcache.ReadReq_misses::cpu.data      2779281                       # number of ReadReq misses
system.cpu.dcache.ReadReq_misses::total       2779281                       # number of ReadReq misses
system.cpu.dcache.WriteReq_misses::cpu.data       180799                       # number of WriteReq misses
system.cpu.dcache.WriteReq_misses::total       180799                       # number of WriteReq misses
system.cpu.dcache.demand_misses::cpu.data      2960080                       # number of demand (read+write) misses
system.cpu.dcache.demand_misses::total        2960080                       # number of demand (read+write) misses
system.cpu.dcache.overall_misses::cpu.data      2960080                       # number of overall misses
system.cpu.dcache.overall_misses::total       2960080                       # number of overall misses
system.cpu.dcache.ReadReq_miss_latency::cpu.data  50346125000                       # number of ReadReq miss cycles
system.cpu.dcache.ReadReq_miss_latency::total  50346125000                       # number of ReadReq miss cycles
system.cpu.dcache.WriteReq_miss_latency::cpu.data   3129227500                       # number of WriteReq miss cycles
system.cpu.dcache.WriteReq_miss_latency::total   3129227500                       # number of WriteReq miss cycles
system.cpu.dcache.demand_miss_latency::cpu.data  53475352500                       # number of demand (read+write) miss cycles
system.cpu.dcache.demand_miss_latency::total  53475352500                       # number of demand (read+write) miss cycles
system.cpu.dcache.overall_miss_latency::cpu.data  53475352500                       # number of overall miss cycles
system.cpu.dcache.overall_miss_latency::total  53475352500                       # number of overall miss cycles
system.cpu.dcache.ReadReq_accesses::cpu.data      9049039                       # number of ReadReq accesses(hits+misses)
system.cpu.dcache.ReadReq_accesses::total      9049039                       # number of ReadReq accesses(hits+misses)
system.cpu.dcache.WriteReq_accesses::cpu.data      4862399                       # number of WriteReq accesses(hits+misses)
system.cpu.dcache.WriteReq_accesses::total      4862399                       # number of WriteReq accesses(hits+misses)
system.cpu.dcache.LoadLockedReq_accesses::cpu.data        95230                       # number of LoadLockedReq accesses(hits+misses)
system.cpu.dcache.LoadLockedReq_accesses::total        95230                       # number of LoadLockedReq accesses(hits+misses)
system.cpu.dcache.StoreCondReq_accesses::cpu.data        95230                       # number of StoreCondReq accesses(hits+misses)
system.cpu.dcache.StoreCondReq_accesses::total        95230                       # number of StoreCondReq accesses(hits+misses)
system.cpu.dcache.demand_accesses::cpu.data     13911438                       # number of demand (read+write) accesses
system.cpu.dcache.demand_accesses::total     13911438                       # number of demand (read+write) accesses
system.cpu.dcache.overall_accesses::cpu.data     13911438                       # number of overall (read+write) accesses
system.cpu.dcache.overall_accesses::total     13911438                       # number of overall (read+write) accesses
system.cpu.dcache.ReadReq_miss_rate::cpu.data     0.307135                       # miss rate for ReadReq accesses
system.cpu.dcache.ReadReq_miss_rate::total     0.307135                       # miss rate for ReadReq accesses
system.cpu.dcache.WriteReq_miss_rate::cpu.data     0.037183                       # miss rate for WriteReq accesses
system.cpu.dcache.WriteReq_miss_rate::total     0.037183                       # miss rate for WriteReq accesses
system.cpu.dcache.demand_miss_rate::cpu.data     0.212780                       # miss rate for demand accesses
system.cpu.dcache.demand_miss_rate::total     0.212780                       # miss rate for demand accesses
system.cpu.dcache.overall_miss_rate::cpu.data     0.212780                       # miss rate for overall accesses
system.cpu.dcache.overall_miss_rate::total     0.212780                       # miss rate for overall accesses
system.cpu.dcache.ReadReq_avg_miss_latency::cpu.data 18114.801994                       # average ReadReq miss latency
system.cpu.dcache.ReadReq_avg_miss_latency::total 18114.801994                       # average ReadReq miss latency
system.cpu.dcache.WriteReq_avg_miss_latency::cpu.data 17307.769954                       # average WriteReq miss latency
system.cpu.dcache.WriteReq_avg_miss_latency::total 17307.769954                       # average WriteReq miss latency
system.cpu.dcache.demand_avg_miss_latency::cpu.data 18065.509209                       # average overall miss latency
system.cpu.dcache.demand_avg_miss_latency::total 18065.509209                       # average overall miss latency
system.cpu.dcache.overall_avg_miss_latency::cpu.data 18065.509209                       # average overall miss latency
system.cpu.dcache.overall_avg_miss_latency::total 18065.509209                       # average overall miss latency
system.cpu.dcache.blocked_cycles::no_mshrs            0                       # number of cycles access was blocked
system.cpu.dcache.blocked_cycles::no_targets            0                       # number of cycles access was blocked
system.cpu.dcache.blocked::no_mshrs                 0                       # number of cycles access was blocked
system.cpu.dcache.blocked::no_targets               0                       # number of cycles access was blocked
system.cpu.dcache.avg_blocked_cycles::no_mshrs          nan                       # average number of cycles each access was blocked
system.cpu.dcache.avg_blocked_cycles::no_targets          nan                       # average number of cycles each access was blocked
system.cpu.dcache.writebacks::writebacks      2096254                       # number of writebacks
system.cpu.dcache.writebacks::total           2096254                       # number of writebacks
system.cpu.dcache.ReadReq_mshr_misses::cpu.data      2779281                       # number of ReadReq MSHR misses
system.cpu.dcache.ReadReq_mshr_misses::total      2779281                       # number of ReadReq MSHR misses
system.cpu.dcache.WriteReq_mshr_misses::cpu.data       180799                       # number of WriteReq MSHR misses
system.cpu.dcache.WriteReq_mshr_misses::total       180799                       # number of WriteReq MSHR misses
system.cpu.dcache.demand_mshr_misses::cpu.data      2960080                       # number of demand (read+write) MSHR misses
system.cpu.dcache.demand_mshr_misses::total      2960080                       # number of demand (read+write) MSHR misses
system.cpu.dcache.overall_mshr_misses::cpu.data      2960080                       # number of overall MSHR misses
system.cpu.dcache.overall_mshr_misses::total      2960080                       # number of overall MSHR misses
system.cpu.dcache.ReadReq_mshr_miss_latency::cpu.data  47566844000                       # number of ReadReq MSHR miss cycles
system.cpu.dcache.ReadReq_mshr_miss_latency::total  47566844000                       # number of ReadReq MSHR miss cycles
system.cpu.dcache.WriteReq_mshr_miss_latency::cpu.data   2948428500                       # number of WriteReq MSHR miss cycles
system.cpu.dcache.WriteReq_mshr_miss_latency::total   2948428500                       # number of WriteReq MSHR miss cycles
system.cpu.dcache.demand_mshr_miss_latency::cpu.data  50515272500                       # number of demand (read+write) MSHR miss cycles
system.cpu.dcache.demand_mshr_miss_latency::total  50515272500                       # number of demand (read+write) MSHR miss cycles
system.cpu.dcache.overall_mshr_miss_latency::cpu.data  50515272500                       # number of overall MSHR miss cycles
system.cpu.dcache.overall_mshr_miss_latency::total  50515272500                       # number of overall MSHR miss cycles
system.cpu.dcache.ReadReq_mshr_miss_rate::cpu.data     0.307135                       # mshr miss rate for ReadReq accesses
system.cpu.dcache.ReadReq_mshr_miss_rate::total     0.307135                       # mshr miss rate for ReadReq accesses
system.cpu.dcache.WriteReq_mshr_miss_rate::cpu.data     0.037183                       # mshr miss rate for WriteReq accesses
system.cpu.dcache.WriteReq_mshr_miss_rate::total     0.037183                       # mshr miss rate for WriteReq accesses
system.cpu.dcache.demand_mshr_miss_rate::cpu.data     0.212780                       # mshr miss rate for demand accesses
system.cpu.dcache.demand_mshr_miss_rate::total     0.212780                       # mshr miss rate for demand accesses
system.cpu.dcache.overall_mshr_miss_rate::cpu.data     0.212780                       # mshr miss rate for overall accesses
system.cpu.dcache.overall_mshr_miss_rate::total     0.212780                       # mshr miss rate for overall accesses
system.cpu.dcache.ReadReq_avg_mshr_miss_latency::cpu.data 17114.801994                       # average ReadReq mshr miss latency
system.cpu.dcache.ReadReq_avg_mshr_miss_latency::total 17114.801994                       # average ReadReq mshr miss latency
system.cpu.dcache.WriteReq_avg_mshr_miss_latency::cpu.data 16307.769954                       # average WriteReq mshr miss latency
system.cpu.dcache.WriteReq_avg_mshr_miss_latency::total 16307.769954                       # average WriteReq mshr miss latency
system.cpu.dcache.demand_avg_mshr_miss_latency::cpu.data 17065.509209                       # average overall mshr miss latency
system.cpu.dcache.demand_avg_mshr_miss_latency::total 17065.509209                       # average overall mshr miss latency
system.cpu.dcache.overall_avg_mshr_miss_latency::cpu.data 17065.509209                       # average overall mshr miss latency
system.cpu.dcache.overall_avg_mshr_miss_latency::total 17065.509209                       # average overall mshr miss latency
system.cpu.icache.tags.pwrStateResidencyTicks::UNDEFINED 125632837500                       # Cumulative time (in ticks) in various power states
system.cpu.icache.tags.replacements           1404422                       # number of replacements
system.cpu.icache.tags.tagsinuse            63.994631                       # Cycle average of tags in use
system.cpu.icache.tags.total_refs            42409529                       # Total number of references to valid blocks.
system.cpu.icache.tags.sampled_refs           1404486                       # Sample count of references to valid blocks.
system.cpu.icache.tags.avg_refs             30.195765                       # Average number of references to valid blocks.
system.cpu.icache.tags.warmup_cycle          54388500                       # Cycle when the warmup percentage was hit.
system.cpu.icache.tags.occ_blocks::cpu.inst    63.994631                       # Average occupied blocks per requestor
system.cpu.icache.tags.occ_percent::cpu.inst     0.999916                       # Average percentage of cache occupancy
system.cpu.icache.tags.occ_percent::total     0.999916                       # Average percentage of cache occupancy
system.cpu.icache.tags.occ_task_id_blocks::1024           64                       # Occupied blocks per task id
system.cpu.icache.tags.age_task_id_blocks_1024::0           42                       # Occupied blocks per task id
system.cpu.icache.tags.age_task_id_blocks_1024::1           18                       # Occupied blocks per task id
system.cpu.icache.tags.age_task_id_blocks_1024::4            4                       # Occupied blocks per task id
system.cpu.icache.tags.occ_task_id_percent::1024            1                       # Percentage of cache occupancy per task id
system.cpu.icache.tags.tag_accesses          45218501                       # Number of tag accesses
system.cpu.icache.tags.data_accesses         45218501                       # Number of data accesses
system.cpu.icache.pwrStateResidencyTicks::UNDEFINED 125632837500                       # Cumulative time (in ticks) in various power states
system.cpu.icache.ReadReq_hits::cpu.inst     42409529                       # number of ReadReq hits
system.cpu.icache.ReadReq_hits::total        42409529                       # number of ReadReq hits
system.cpu.icache.demand_hits::cpu.inst      42409529                       # number of demand (read+write) hits
system.cpu.icache.demand_hits::total         42409529                       # number of demand (read+write) hits
system.cpu.icache.overall_hits::cpu.inst     42409529                       # number of overall hits
system.cpu.icache.overall_hits::total        42409529                       # number of overall hits
system.cpu.icache.ReadReq_misses::cpu.inst      1404486                       # number of ReadReq misses
system.cpu.icache.ReadReq_misses::total       1404486                       # number of ReadReq misses
system.cpu.icache.demand_misses::cpu.inst      1404486                       # number of demand (read+write) misses
system.cpu.icache.demand_misses::total        1404486                       # number of demand (read+write) misses
system.cpu.icache.overall_misses::cpu.inst      1404486                       # number of overall misses
system.cpu.icache.overall_misses::total       1404486                       # number of overall misses
system.cpu.icache.ReadReq_miss_latency::cpu.inst  18637332000                       # number of ReadReq miss cycles
system.cpu.icache.ReadReq_miss_latency::total  18637332000                       # number of ReadReq miss cycles
system.cpu.icache.demand_miss_latency::cpu.inst  18637332000                       # number of demand (read+write) miss cycles
system.cpu.icache.demand_miss_latency::total  18637332000                       # number of demand (read+write) miss cycles
system.cpu.icache.overall_miss_latency::cpu.inst  18637332000                       # number of overall miss cycles
system.cpu.icache.overall_miss_latency::total  18637332000                       # number of overall miss cycles
system.cpu.icache.ReadReq_accesses::cpu.inst     43814015                       # number of ReadReq accesses(hits+misses)
system.cpu.icache.ReadReq_accesses::total     43814015                       # number of ReadReq accesses(hits+misses)
system.cpu.icache.demand_accesses::cpu.inst     43814015                       # number of demand (read+write) accesses
system.cpu.icache.demand_accesses::total     43814015                       # number of demand (read+write) accesses
system.cpu.icache.overall_accesses::cpu.inst     43814015                       # number of overall (read+write) accesses
system.cpu.icache.overall_accesses::total     43814015                       # number of overall (read+write) accesses
system.cpu.icache.ReadReq_miss_rate::cpu.inst     0.032056                       # miss rate for ReadReq accesses
system.cpu.icache.ReadReq_miss_rate::total     0.032056                       # miss rate for ReadReq accesses
system.cpu.icache.demand_miss_rate::cpu.inst     0.032056                       # miss rate for demand accesses
system.cpu.icache.demand_miss_rate::total     0.032056                       # miss rate for demand accesses
system.cpu.icache.overall_miss_rate::cpu.inst     0.032056                       # miss rate for overall accesses
system.cpu.icache.overall_miss_rate::total     0.032056                       # miss rate for overall accesses
system.cpu.icache.ReadReq_avg_miss_latency::cpu.inst 13269.859579                       # average ReadReq miss latency
system.cpu.icache.ReadReq_avg_miss_latency::total 13269.859579                       # average ReadReq miss latency
system.cpu.icache.demand_avg_miss_latency::cpu.inst 13269.859579                       # average overall miss latency
system.cpu.icache.demand_avg_miss_latency::total 13269.859579                       # average overall miss latency
system.cpu.icache.overall_avg_miss_latency::cpu.inst 13269.859579                       # average overall miss latency
system.cpu.icache.overall_avg_miss_latency::total 13269.859579                       # average overall miss latency
system.cpu.icache.blocked_cycles::no_mshrs            0                       # number of cycles access was blocked
system.cpu.icache.blocked_cycles::no_targets            0                       # number of cycles access was blocked
system.cpu.icache.blocked::no_mshrs                 0                       # number of cycles access was blocked
system.cpu.icache.blocked::no_targets               0                       # number of cycles access was blocked
system.cpu.icache.avg_blocked_cycles::no_mshrs          nan                       # average number of cycles each access was blocked
system.cpu.icache.avg_blocked_cycles::no_targets          nan                       # average number of cycles each access was blocked
system.cpu.icache.writebacks::writebacks      1404422                       # number of writebacks
system.cpu.icache.writebacks::total           1404422                       # number of writebacks
system.cpu.icache.ReadReq_mshr_misses::cpu.inst      1404486                       # number of ReadReq MSHR misses
system.cpu.icache.ReadReq_mshr_misses::total      1404486                       # number of ReadReq MSHR misses
system.cpu.icache.demand_mshr_misses::cpu.inst      1404486                       # number of demand (read+write) MSHR misses
system.cpu.icache.demand_mshr_misses::total      1404486                       # number of demand (read+write) MSHR misses
system.cpu.icache.overall_mshr_misses::cpu.inst      1404486                       # number of overall MSHR misses
system.cpu.icache.overall_mshr_misses::total      1404486                       # number of overall MSHR misses
system.cpu.icache.ReadReq_mshr_miss_latency::cpu.inst  17232846000                       # number of ReadReq MSHR miss cycles
system.cpu.icache.ReadReq_mshr_miss_latency::total  17232846000                       # number of ReadReq MSHR miss cycles
system.cpu.icache.demand_mshr_miss_latency::cpu.inst  17232846000                       # number of demand (read+write) MSHR miss cycles
system.cpu.icache.demand_mshr_miss_latency::total  17232846000                       # number of demand (read+write) MSHR miss cycles
system.cpu.icache.overall_mshr_miss_latency::cpu.inst  17232846000                       # number of overall MSHR miss cycles
system.cpu.icache.overall_mshr_miss_latency::total  17232846000                       # number of overall MSHR miss cycles
system.cpu.icache.ReadReq_mshr_miss_rate::cpu.inst     0.032056                       # mshr miss rate for ReadReq accesses
system.cpu.icache.ReadReq_mshr_miss_rate::total     0.032056                       # mshr miss rate for ReadReq accesses
[...]
system.l2.ReadExReq_accesses::total            180799                       # number of ReadExReq accesses(hits+misses)
system.l2.ReadCleanReq_accesses::cpu.inst      1404486                       # number of ReadCleanReq accesses(hits+misses)
system.l2.ReadCleanReq_accesses::total        1404486                       # number of ReadCleanReq accesses(hits+misses)
system.l2.ReadSharedReq_accesses::cpu.data      2779281                       # number of ReadSharedReq accesses(hits+misses)
system.l2.ReadSharedReq_accesses::total       2779281                       # number of ReadSharedReq accesses(hits+misses)
system.l2.demand_accesses::cpu.inst           1404486                       # number of demand (read+write) accesses
system.l2.demand_accesses::cpu.data           2960080                       # number of demand (read+write) accesses
system.l2.demand_accesses::total              4364566                       # number of demand (read+write) accesses
system.l2.overall_accesses::cpu.inst          1404486                       # number of overall (read+write) accesses
system.l2.overall_accesses::cpu.data          2960080                       # number of overall (read+write) accesses
system.l2.overall_accesses::total             4364566                       # number of overall (read+write) accesses
system.l2.ReadExReq_miss_rate::cpu.data      0.016853                       # miss rate for ReadExReq accesses
system.l2.ReadExReq_miss_rate::total         0.016853                       # miss rate for ReadExReq accesses
system.l2.ReadCleanReq_miss_rate::cpu.inst     0.003429                       # miss rate for ReadCleanReq accesses
system.l2.ReadCleanReq_miss_rate::total      0.003429                       # miss rate for ReadCleanReq accesses
system.l2.ReadSharedReq_miss_rate::cpu.data     0.063309                       # miss rate for ReadSharedReq accesses
system.l2.ReadSharedReq_miss_rate::total     0.063309                       # miss rate for ReadSharedReq accesses
system.l2.demand_miss_rate::cpu.inst         0.003429                       # miss rate for demand accesses
system.l2.demand_miss_rate::cpu.data         0.060472                       # miss rate for demand accesses
system.l2.demand_miss_rate::total            0.042116                       # miss rate for demand accesses
system.l2.overall_miss_rate::cpu.inst        0.003429                       # miss rate for overall accesses
system.l2.overall_miss_rate::cpu.data        0.060472                       # miss rate for overall accesses
system.l2.overall_miss_rate::total           0.042116                       # miss rate for overall accesses
system.l2.ReadExReq_avg_miss_latency::cpu.data 266108.959632                       # average ReadExReq miss latency
system.l2.ReadExReq_avg_miss_latency::total 266108.959632                       # average ReadExReq miss latency
system.l2.ReadCleanReq_avg_miss_latency::cpu.inst 86072.259136                       # average ReadCleanReq miss latency
system.l2.ReadCleanReq_avg_miss_latency::total 86072.259136                       # average ReadCleanReq miss latency
system.l2.ReadSharedReq_avg_miss_latency::cpu.data 91173.985814                       # average ReadSharedReq miss latency
system.l2.ReadSharedReq_avg_miss_latency::total 91173.985814                       # average ReadSharedReq miss latency
system.l2.demand_avg_miss_latency::cpu.inst 86072.259136                       # average overall miss latency
system.l2.demand_avg_miss_latency::cpu.data 94151.772895                       # average overall miss latency
system.l2.demand_avg_miss_latency::total 93940.089872                       # average overall miss latency
system.l2.overall_avg_miss_latency::cpu.inst 86072.259136                       # average overall miss latency
system.l2.overall_avg_miss_latency::cpu.data 94151.772895                       # average overall miss latency
system.l2.overall_avg_miss_latency::total 93940.089872                       # average overall miss latency
system.l2.blocked_cycles::no_mshrs                  0                       # number of cycles access was blocked
system.l2.blocked_cycles::no_targets                0                       # number of cycles access was blocked
system.l2.blocked::no_mshrs                         0                       # number of cycles access was blocked
system.l2.blocked::no_targets                       0                       # number of cycles access was blocked
system.l2.avg_blocked_cycles::no_mshrs            nan                       # average number of cycles each access was blocked
system.l2.avg_blocked_cycles::no_targets          nan                       # average number of cycles each access was blocked
system.l2.writebacks::writebacks                13455                       # number of writebacks
system.l2.writebacks::total                     13455                       # number of writebacks
system.l2.CleanEvict_mshr_misses::writebacks            4                       # number of CleanEvict MSHR misses
system.l2.CleanEvict_mshr_misses::total             4                       # number of CleanEvict MSHR misses
system.l2.ReadExReq_mshr_misses::cpu.data         3047                       # number of ReadExReq MSHR misses
system.l2.ReadExReq_mshr_misses::total           3047                       # number of ReadExReq MSHR misses
system.l2.ReadCleanReq_mshr_misses::cpu.inst         4816                       # number of ReadCleanReq MSHR misses
system.l2.ReadCleanReq_mshr_misses::total         4816                       # number of ReadCleanReq MSHR misses
system.l2.ReadSharedReq_mshr_misses::cpu.data       175954                       # number of ReadSharedReq MSHR misses
system.l2.ReadSharedReq_mshr_misses::total       175954                       # number of ReadSharedReq MSHR misses
system.l2.demand_mshr_misses::cpu.inst           4816                       # number of demand (read+write) MSHR misses
system.l2.demand_mshr_misses::cpu.data         179001                       # number of demand (read+write) MSHR misses
system.l2.demand_mshr_misses::total            183817                       # number of demand (read+write) MSHR misses
system.l2.overall_mshr_misses::cpu.inst          4816                       # number of overall MSHR misses
system.l2.overall_mshr_misses::cpu.data        179001                       # number of overall MSHR misses
system.l2.overall_mshr_misses::total           183817                       # number of overall MSHR misses
system.l2.ReadExReq_mshr_miss_latency::cpu.data    780364000                       # number of ReadExReq MSHR miss cycles
system.l2.ReadExReq_mshr_miss_latency::total    780364000                       # number of ReadExReq MSHR miss cycles
system.l2.ReadCleanReq_mshr_miss_latency::cpu.inst    366364000                       # number of ReadCleanReq MSHR miss cycles
system.l2.ReadCleanReq_mshr_miss_latency::total    366364000                       # number of ReadCleanReq MSHR miss cycles
system.l2.ReadSharedReq_mshr_miss_latency::cpu.data  14282887500                       # number of ReadSharedReq MSHR miss cycles
system.l2.ReadSharedReq_mshr_miss_latency::total  14282887500                       # number of ReadSharedReq MSHR miss cycles
system.l2.demand_mshr_miss_latency::cpu.inst    366364000                       # number of demand (read+write) MSHR miss cycles
system.l2.demand_mshr_miss_latency::cpu.data  15063251500                       # number of demand (read+write) MSHR miss cycles
system.l2.demand_mshr_miss_latency::total  15429615500                       # number of demand (read+write) MSHR miss cycles
system.l2.overall_mshr_miss_latency::cpu.inst    366364000                       # number of overall MSHR miss cycles
system.l2.overall_mshr_miss_latency::cpu.data  15063251500                       # number of overall MSHR miss cycles
system.l2.overall_mshr_miss_latency::total  15429615500                       # number of overall MSHR miss cycles
system.l2.CleanEvict_mshr_miss_rate::writebacks          inf                       # mshr miss rate for CleanEvict accesses
system.l2.CleanEvict_mshr_miss_rate::total          inf                       # mshr miss rate for CleanEvict accesses
system.l2.ReadExReq_mshr_miss_rate::cpu.data     0.016853                       # mshr miss rate for ReadExReq accesses
system.l2.ReadExReq_mshr_miss_rate::total     0.016853                       # mshr miss rate for ReadExReq accesses
system.l2.ReadCleanReq_mshr_miss_rate::cpu.inst     0.003429                       # mshr miss rate for ReadCleanReq accesses
system.l2.ReadCleanReq_mshr_miss_rate::total     0.003429                       # mshr miss rate for ReadCleanReq accesses
system.l2.ReadSharedReq_mshr_miss_rate::cpu.data     0.063309                       # mshr miss rate for ReadSharedReq accesses
system.l2.ReadSharedReq_mshr_miss_rate::total     0.063309                       # mshr miss rate for ReadSharedReq accesses
system.l2.demand_mshr_miss_rate::cpu.inst     0.003429                       # mshr miss rate for demand accesses
system.l2.demand_mshr_miss_rate::cpu.data     0.060472                       # mshr miss rate for demand accesses
system.l2.demand_mshr_miss_rate::total       0.042116                       # mshr miss rate for demand accesses
system.l2.overall_mshr_miss_rate::cpu.inst     0.003429                       # mshr miss rate for overall accesses
system.l2.overall_mshr_miss_rate::cpu.data     0.060472                       # mshr miss rate for overall accesses
system.l2.overall_mshr_miss_rate::total      0.042116                       # mshr miss rate for overall accesses
system.l2.ReadExReq_avg_mshr_miss_latency::cpu.data 256108.959632                       # average ReadExReq mshr miss latency
system.l2.ReadExReq_avg_mshr_miss_latency::total 256108.959632                       # average ReadExReq mshr miss latency
system.l2.ReadCleanReq_avg_mshr_miss_latency::cpu.inst 76072.259136                       # average ReadCleanReq mshr miss latency
system.l2.ReadCleanReq_avg_mshr_miss_latency::total 76072.259136                       # average ReadCleanReq mshr miss latency
system.l2.ReadSharedReq_avg_mshr_miss_latency::cpu.data 81173.985814                       # average ReadSharedReq mshr miss latency
system.l2.ReadSharedReq_avg_mshr_miss_latency::total 81173.985814                       # average ReadSharedReq mshr miss latency
system.l2.demand_avg_mshr_miss_latency::cpu.inst 76072.259136                       # average overall mshr miss latency
system.l2.demand_avg_mshr_miss_latency::cpu.data 84151.772895                       # average overall mshr miss latency
system.l2.demand_avg_mshr_miss_latency::total 83940.089872                       # average overall mshr miss latency
system.l2.overall_avg_mshr_miss_latency::cpu.inst 76072.259136                       # average overall mshr miss latency
system.l2.overall_avg_mshr_miss_latency::cpu.data 84151.772895                       # average overall mshr miss latency
system.l2.overall_avg_mshr_miss_latency::total 83940.089872                       # average overall mshr miss latency
system.membus.snoop_filter.tot_requests        367118                       # Total number of requests made to the snoop filter.
system.membus.snoop_filter.hit_single_requests       183301                       # Number of requests hitting in the snoop filter with a single holder of the requested data.
system.membus.snoop_filter.hit_multi_requests            0                       # Number of requests hitting in the snoop filter with multiple (>1) holders of the requested data.
system.membus.snoop_filter.tot_snoops               0                       # Total number of snoops made to the snoop filter.
system.membus.snoop_filter.hit_single_snoops            0                       # Number of snoops hitting in the snoop filter with a single holder of the requested data.
system.membus.snoop_filter.hit_multi_snoops            0                       # Number of snoops hitting in the snoop filter with multiple (>1) holders of the requested data.
system.membus.pwrStateResidencyTicks::UNDEFINED 125632837500                       # Cumulative time (in ticks) in various power states
system.membus.trans_dist::ReadResp             180770                       # Transaction distribution
system.membus.trans_dist::WritebackDirty        13455                       # Transaction distribution
system.membus.trans_dist::CleanEvict           169846                       # Transaction distribution
system.membus.trans_dist::ReadExReq              3047                       # Transaction distribution
system.membus.trans_dist::ReadExResp             3047                       # Transaction distribution
system.membus.trans_dist::ReadSharedReq        180770                       # Transaction distribution
system.membus.pkt_count_system.l2.mem_side::system.mem_ctrls.port       550935                       # Packet count per connected master and slave (bytes)
system.membus.pkt_count::total                 550935                       # Packet count per connected master and slave (bytes)
system.membus.pkt_size_system.l2.mem_side::system.mem_ctrls.port      6312704                       # Cumulative packet size per connected master and slave (bytes)
system.membus.pkt_size::total                 6312704                       # Cumulative packet size per connected master and slave (bytes)
system.membus.snoops                                0                       # Total snoops (count)
system.membus.snoopTraffic                          0                       # Total snoop traffic (bytes)
system.membus.snoop_fanout::samples            183817                       # Request fanout histogram
system.membus.snoop_fanout::mean                    0                       # Request fanout histogram
system.membus.snoop_fanout::stdev                   0                       # Request fanout histogram
system.membus.snoop_fanout::underflows              0      0.00%      0.00% # Request fanout histogram
system.membus.snoop_fanout::0                  183817    100.00%    100.00% # Request fanout histogram
system.membus.snoop_fanout::1                       0      0.00%    100.00% # Request fanout histogram
system.membus.snoop_fanout::overflows               0      0.00%    100.00% # Request fanout histogram
system.membus.snoop_fanout::min_value               0                       # Request fanout histogram
system.membus.snoop_fanout::max_value               0                       # Request fanout histogram
system.membus.snoop_fanout::total              183817                       # Request fanout histogram
system.membus.reqLayer0.occupancy           405976000                       # Layer occupancy (ticks)
system.membus.reqLayer0.utilization               0.3                       # Layer utilization (%)
system.membus.respLayer1.occupancy          602974250                       # Layer occupancy (ticks)
system.membus.respLayer1.utilization              0.5                       # Layer utilization (%)
system.tol2bus.snoop_filter.tot_requests      8729036                       # Total number of requests made to the snoop filter.
system.tol2bus.snoop_filter.hit_single_requests      4364470                       # Number of requests hitting in the snoop filter with a single holder of the requested data.
system.tol2bus.snoop_filter.hit_multi_requests        35608                       # Number of requests hitting in the snoop filter with multiple (>1) holders of the requested data.
system.tol2bus.snoop_filter.tot_snoops           1441                       # Total number of snoops made to the snoop filter.
system.tol2bus.snoop_filter.hit_single_snoops         1441                       # Number of snoops hitting in the snoop filter with a single holder of the requested data.
system.tol2bus.snoop_filter.hit_multi_snoops            0                       # Number of snoops hitting in the snoop filter with multiple (>1) holders of the requested data.
system.tol2bus.pwrStateResidencyTicks::UNDEFINED 125632837500                       # Cumulative time (in ticks) in various power states
system.tol2bus.trans_dist::ReadResp           4183767                       # Transaction distribution
system.tol2bus.trans_dist::WritebackDirty      2109709                       # Transaction distribution
system.tol2bus.trans_dist::WritebackClean      1404422                       # Transaction distribution
system.tol2bus.trans_dist::CleanEvict         1035077                       # Transaction distribution
system.tol2bus.trans_dist::ReadExReq           180799                       # Transaction distribution
system.tol2bus.trans_dist::ReadExResp          180799                       # Transaction distribution
system.tol2bus.trans_dist::ReadCleanReq       1404486                       # Transaction distribution
system.tol2bus.trans_dist::ReadSharedReq      2779281                       # Transaction distribution
system.tol2bus.pkt_count_system.cpu.icache.mem_side::system.l2.cpu_side      4213394                       # Packet count per connected master and slave (bytes)
system.tol2bus.pkt_count_system.cpu.dcache.mem_side::system.l2.cpu_side      8880208                       # Packet count per connected master and slave (bytes)
system.tol2bus.pkt_count::total              13093602                       # Packet count per connected master and slave (bytes)
system.tol2bus.pkt_size_system.cpu.icache.mem_side::system.l2.cpu_side     89885056                       # Cumulative packet size per connected master and slave (bytes)
system.tol2bus.pkt_size_system.cpu.dcache.mem_side::system.l2.cpu_side    161802688                       # Cumulative packet size per connected master and slave (bytes)
system.tol2bus.pkt_size::total              251687744                       # Cumulative packet size per connected master and slave (bytes)
system.tol2bus.snoops                          184738                       # Total snoops (count)
system.tol2bus.snoopTraffic                    430560                       # Total snoop traffic (bytes)
system.tol2bus.snoop_fanout::samples          4549304                       # Request fanout histogram
system.tol2bus.snoop_fanout::mean            0.008144                       # Request fanout histogram
system.tol2bus.snoop_fanout::stdev           0.089875                       # Request fanout histogram
system.tol2bus.snoop_fanout::underflows             0      0.00%      0.00% # Request fanout histogram
system.tol2bus.snoop_fanout::0                4512255     99.19%     99.19% # Request fanout histogram
system.tol2bus.snoop_fanout::1                  37049      0.81%    100.00% # Request fanout histogram
system.tol2bus.snoop_fanout::2                      0      0.00%    100.00% # Request fanout histogram
system.tol2bus.snoop_fanout::overflows              0      0.00%    100.00% # Request fanout histogram
system.tol2bus.snoop_fanout::min_value              0                       # Request fanout histogram
system.tol2bus.snoop_fanout::max_value              1                       # Request fanout histogram
system.tol2bus.snoop_fanout::total            4549304                       # Request fanout histogram
system.tol2bus.reqLayer0.occupancy         6114856000                       # Layer occupancy (ticks)
system.tol2bus.reqLayer0.utilization              4.9                       # Layer utilization (%)
system.tol2bus.respLayer0.occupancy        1404486000                       # Layer occupancy (ticks)
system.tol2bus.respLayer0.utilization             1.1                       # Layer utilization (%)
system.tol2bus.respLayer1.occupancy        2960080000                       # Layer occupancy (ticks)
system.tol2bus.respLayer1.utilization             2.4                       # Layer utilization (%)

---------- End Simulation Statistics   ----------
